Version 4
SHEET 1 880 680
WIRE -112 48 -176 48
WIRE 32 48 -16 48
WIRE 112 48 32 48
WIRE 128 48 112 48
WIRE 240 48 176 48
WIRE 256 48 240 48
WIRE 272 48 256 48
WIRE 384 48 352 48
WIRE 528 48 384 48
WIRE -176 112 -176 48
WIRE 240 112 240 48
WIRE 272 112 240 112
WIRE 384 112 384 48
WIRE 384 112 352 112
WIRE 528 112 528 48
WIRE -112 192 -112 80
WIRE -112 192 -176 192
WIRE -16 192 -16 80
WIRE -16 192 -32 192
WIRE 528 192 -16 192
WIRE -176 208 -176 192
FLAG -176 208 0
FLAG 256 48 Ucoil
FLAG 32 48 Uin
SYMBOL ind 256 64 R270
WINDOW 0 32 56 VTop 2
WINDOW 3 5 56 VBottom 2
SYMATTR InstName L1
SYMATTR Value 3.8µ
SYMATTR SpiceLine Rser=0.313 Cpar=38f
SYMBOL voltage -176 96 R0
WINDOW 123 24 124 Left 2
WINDOW 39 24 152 Left 2
SYMATTR Value2 AC 62
SYMATTR SpiceLine Rser=50
SYMATTR InstName V1
SYMATTR Value SINE()
SYMBOL res 544 208 R180
WINDOW 0 36 76 Left 2
WINDOW 3 36 40 Left 2
SYMATTR InstName R1
SYMATTR Value 1m
SYMBOL tline -64 64 R0
SYMATTR InstName T1
SYMATTR Value Td=4n Z0=50
SYMBOL res -16 176 R90
WINDOW 0 0 56 VBottom 2
WINDOW 3 32 56 VTop 2
SYMATTR InstName R2
SYMATTR Value 2
SYMBOL cap 176 32 R90
WINDOW 0 0 32 VBottom 2
WINDOW 3 32 32 VTop 2
SYMATTR InstName C1
SYMATTR Value 19p
SYMBOL res 368 96 R90
WINDOW 0 0 56 VBottom 2
WINDOW 3 32 56 VTop 2
SYMATTR InstName R3
SYMATTR Value 10k
TEXT 64 272 Left 2 !.ac dec 1000 1Meg 150Meg
